Circuit: * C:\Users\david\Desktop\uni\Electronica\practica2\1.1.3\dcSweep.asc


Date: Mon Oct  9 07:20:55 2023
Total elapsed time: 0.103 seconds.

tnom = 27
temp = 27
method = trap
totiter = 667
traniter = 0
tranpoints = 0
accept = 0
rejected = 0
matrix size = 4
fillins = 0
solver = Normal
Avg thread counts: 2.9/0.0/3.7/2.9
Matrix Compiler1: off  [0.1]/0.2/0.3
Matrix Compiler2: off  [0.1]/0.2/0.1

