Circuit: * C:\Users\david\Desktop\uni\Electronica\practica3\1.1\Draft1.asc

Warning: Multiple definitions of model "2scr375p" Type: BJT
Warning: Multiple definitions of model "bc857b" Type: BJT
Warning: Multiple definitions of model "bc847c" Type: BJT
Warning: Multiple definitions of model "bc847b" Type: BJT

Date: Mon Nov 27 08:24:59 2023
Total elapsed time: 0.093 seconds.

tnom = 27
temp = 27
method = trap
totiter = 1018
traniter = 0
tranpoints = 0
accept = 0
rejected = 0
matrix size = 6
fillins = 0
solver = Normal
Avg thread counts: 2.2/0.0/3.3/2.2
Matrix Compiler1: off  [0.2]/0.2/0.2
Matrix Compiler2: off  [0.2]/0.3/1.1

