Circuit: * Z:\home\maqui\uni\Electronica\practica2\1.1.4\dcSweep.asc


Date: Mon Oct 09 11:03:27 2023
Total elapsed time: 0.159 seconds.

tnom = 27
temp = 27
method = trap
totiter = 653
traniter = 0
tranpoints = 0
accept = 0
rejected = 0
matrix size = 4
fillins = 0
solver = Normal
Matrix Compiler1: 118 bytes object code size  0.2/0.2/[0.2]
Matrix Compiler2: off
