Circuit: * C:\Users\david\Desktop\uni\Electronica\practica2\1.1.4\tran.asc

Direct Newton iteration for .op point succeeded.

Date: Mon Oct  9 07:22:28 2023
Total elapsed time: 0.113 seconds.

tnom = 27
temp = 27
method = modified trap
totiter = 2196
traniter = 2189
tranpoints = 1088
accept = 1084
rejected = 4
matrix size = 4
fillins = 0
solver = Normal
Avg thread counts: 1.6/2.2/2.2/1.6
Matrix Compiler1:       7 opcodes  0.2/[0.1]/0.2
Matrix Compiler2: off  [0.1]/0.2/0.2

