Circuit: * Z:\home\maqui\uni\Electronica\practica2\1.1.4\tran.asc

Direct Newton iteration for .op point succeeded.

Date: Mon Oct 09 11:01:12 2023
Total elapsed time: 0.179 seconds.

tnom = 27
temp = 27
method = modified trap
totiter = 2196
traniter = 2189
tranpoints = 1088
accept = 1084
rejected = 4
matrix size = 4
fillins = 0
solver = Normal
Matrix Compiler1: 118 bytes object code size  0.3/0.3/[0.3]
Matrix Compiler2: off
