Circuit: * C:\Users\david\Desktop\uni\Electronica\practica2\1.2.1\Draft2.asc

Warning: Multiple definitions of model "2scr375p" Type: BJT
Warning: Multiple definitions of model "bc857b" Type: BJT
Warning: Multiple definitions of model "bc847c" Type: BJT
Warning: Multiple definitions of model "bc847b" Type: BJT
.OP point found by inspection.
.step ib=0
.step ib=1e-05
.step ib=2e-05
.step ib=3e-05
.step ib=4e-05
.step ib=5e-05

Date: Mon Nov 27 08:17:54 2023
Total elapsed time: 0.123 seconds.

tnom = 27
temp = 27
method = trap
totiter = 6043
traniter = 0
tranpoints = 0
accept = 0
rejected = 0
matrix size = 6
fillins = 0
solver = Normal
Avg thread counts: 1.2/0.0/1.4/1.2
Matrix Compiler1: off  [0.2]/0.2/0.3
Matrix Compiler2: 462 bytes object code size  0.2/0.3/[0.1]

