Circuit: * C:\Users\david\Desktop\uni\Electronica\practica2\1.2.1\Draft1.asc

.OP point found by inspection.

Date: Mon Oct  9 07:24:37 2023
Total elapsed time: 0.133 seconds.

tnom = 27
temp = 27
method = modified trap
totiter = 2144
traniter = 2144
tranpoints = 1048
accept = 1044
rejected = 4
matrix size = 8
fillins = 0
solver = Normal
Avg thread counts: 1.6/2.2/2.2/1.6
Matrix Compiler1: 336 bytes object code size  0.3/0.3/[0.2]
Matrix Compiler2: off  [0.2]/0.3/0.6

