Circuit: * C:\Users\david\Desktop\uni\Electronica\practica2\1.2.2\Draft1.asc

Direct Newton iteration for .op point succeeded.

Date: Mon Oct  9 07:25:40 2023
Total elapsed time: 0.151 seconds.

tnom = 27
temp = 27
method = modified trap
totiter = 2551
traniter = 2535
tranpoints = 1197
accept = 1152
rejected = 45
matrix size = 8
fillins = 2
solver = Normal
Avg thread counts: 1.5/2.0/2.0/1.5
Matrix Compiler1: 354 bytes object code size  0.3/0.3/[0.2]
Matrix Compiler2: off  [0.2]/0.4/0.4

