Circuit: * C:\Users\david\Desktop\uni\Electronica\practica2\1.1.2\Draft1.asc


Date: Mon Oct  9 07:18:27 2023
Total elapsed time: 0.090 seconds.

tnom = 27
temp = 27
method = trap
totiter = 652
traniter = 0
tranpoints = 0
accept = 0
rejected = 0
matrix size = 4
fillins = 0
solver = Normal
Avg thread counts: 2.9/0.0/3.7/2.9
Matrix Compiler1:       7 opcodes  0.2/[0.1]/0.2
Matrix Compiler2: off  [0.1]/0.2/0.1

